*SPEF "ieee 1481-1999"
*DESIGN "user_project_wrapper"
*DATE "11:11:11 Fri 11 11, 1111"
*VENDOR "OpenRCX"
*PROGRAM "Parallel Extraction"
*VERSION "1.0"
*DESIGN_FLOW "NAME_SCOPE LOCAL" "PIN_CAP NONE"
*DIVIDER /
*DELIMITER :
*BUS_DELIMITER []
*T_UNIT 1 NS
*C_UNIT 1 PF
*R_UNIT 1 OHM
*L_UNIT 1 HENRY

*NAME_MAP
*1 io_in[0]
*2 io_in[10]
*3 io_in[11]
*4 io_in[12]
*5 io_in[13]
*6 io_in[14]
*7 io_in[15]
*8 io_in[16]
*9 io_in[17]
*10 io_in[18]
*11 io_in[19]
*12 io_in[1]
*13 io_in[20]
*14 io_in[21]
*15 io_in[22]
*16 io_in[23]
*17 io_in[24]
*18 io_in[25]
*19 io_in[26]
*20 io_in[27]
*21 io_in[28]
*22 io_in[29]
*23 io_in[2]
*24 io_in[30]
*25 io_in[31]
*26 io_in[32]
*27 io_in[33]
*28 io_in[34]
*29 io_in[35]
*30 io_in[36]
*31 io_in[37]
*32 io_in[3]
*33 io_in[4]
*34 io_in[5]
*35 io_in[6]
*36 io_in[7]
*37 io_in[8]
*38 io_in[9]
*39 io_oeb[0]
*40 io_oeb[10]
*41 io_oeb[11]
*42 io_oeb[12]
*43 io_oeb[13]
*44 io_oeb[14]
*45 io_oeb[15]
*46 io_oeb[16]
*47 io_oeb[17]
*48 io_oeb[18]
*49 io_oeb[19]
*50 io_oeb[1]
*51 io_oeb[20]
*52 io_oeb[21]
*53 io_oeb[22]
*54 io_oeb[23]
*55 io_oeb[24]
*56 io_oeb[25]
*57 io_oeb[26]
*58 io_oeb[27]
*59 io_oeb[28]
*60 io_oeb[29]
*61 io_oeb[2]
*62 io_oeb[30]
*63 io_oeb[31]
*64 io_oeb[32]
*65 io_oeb[33]
*66 io_oeb[34]
*67 io_oeb[35]
*68 io_oeb[36]
*69 io_oeb[37]
*70 io_oeb[3]
*71 io_oeb[4]
*72 io_oeb[5]
*73 io_oeb[6]
*74 io_oeb[7]
*75 io_oeb[8]
*76 io_oeb[9]
*77 io_out[0]
*78 io_out[10]
*79 io_out[11]
*80 io_out[12]
*81 io_out[13]
*82 io_out[14]
*83 io_out[15]
*84 io_out[16]
*85 io_out[17]
*86 io_out[18]
*87 io_out[19]
*88 io_out[1]
*89 io_out[20]
*90 io_out[21]
*91 io_out[22]
*92 io_out[23]
*93 io_out[24]
*94 io_out[25]
*95 io_out[26]
*96 io_out[27]
*97 io_out[28]
*98 io_out[29]
*99 io_out[2]
*100 io_out[30]
*101 io_out[31]
*102 io_out[32]
*103 io_out[33]
*104 io_out[34]
*105 io_out[35]
*106 io_out[36]
*107 io_out[37]
*108 io_out[3]
*109 io_out[4]
*110 io_out[5]
*111 io_out[6]
*112 io_out[7]
*113 io_out[8]
*114 io_out[9]
*115 la_data_in[0]
*116 la_data_in[10]
*117 la_data_in[11]
*118 la_data_in[12]
*119 la_data_in[13]
*120 la_data_in[14]
*121 la_data_in[15]
*122 la_data_in[16]
*123 la_data_in[17]
*124 la_data_in[18]
*125 la_data_in[19]
*126 la_data_in[1]
*127 la_data_in[20]
*128 la_data_in[21]
*129 la_data_in[22]
*130 la_data_in[23]
*131 la_data_in[24]
*132 la_data_in[25]
*133 la_data_in[26]
*134 la_data_in[27]
*135 la_data_in[28]
*136 la_data_in[29]
*137 la_data_in[2]
*138 la_data_in[30]
*139 la_data_in[31]
*140 la_data_in[32]
*141 la_data_in[33]
*142 la_data_in[34]
*143 la_data_in[35]
*144 la_data_in[36]
*145 la_data_in[37]
*146 la_data_in[38]
*147 la_data_in[39]
*148 la_data_in[3]
*149 la_data_in[40]
*150 la_data_in[41]
*151 la_data_in[42]
*152 la_data_in[43]
*153 la_data_in[44]
*154 la_data_in[45]
*155 la_data_in[46]
*156 la_data_in[47]
*157 la_data_in[48]
*158 la_data_in[49]
*159 la_data_in[4]
*160 la_data_in[50]
*161 la_data_in[51]
*162 la_data_in[52]
*163 la_data_in[53]
*164 la_data_in[54]
*165 la_data_in[55]
*166 la_data_in[56]
*167 la_data_in[57]
*168 la_data_in[58]
*169 la_data_in[59]
*170 la_data_in[5]
*171 la_data_in[60]
*172 la_data_in[61]
*173 la_data_in[62]
*174 la_data_in[63]
*175 la_data_in[6]
*176 la_data_in[7]
*177 la_data_in[8]
*178 la_data_in[9]
*179 la_data_out[0]
*180 la_data_out[10]
*181 la_data_out[11]
*182 la_data_out[12]
*183 la_data_out[13]
*184 la_data_out[14]
*185 la_data_out[15]
*186 la_data_out[16]
*187 la_data_out[17]
*188 la_data_out[18]
*189 la_data_out[19]
*190 la_data_out[1]
*191 la_data_out[20]
*192 la_data_out[21]
*193 la_data_out[22]
*194 la_data_out[23]
*195 la_data_out[24]
*196 la_data_out[25]
*197 la_data_out[26]
*198 la_data_out[27]
*199 la_data_out[28]
*200 la_data_out[29]
*201 la_data_out[2]
*202 la_data_out[30]
*203 la_data_out[31]
*204 la_data_out[32]
*205 la_data_out[33]
*206 la_data_out[34]
*207 la_data_out[35]
*208 la_data_out[36]
*209 la_data_out[37]
*210 la_data_out[38]
*211 la_data_out[39]
*212 la_data_out[3]
*213 la_data_out[40]
*214 la_data_out[41]
*215 la_data_out[42]
*216 la_data_out[43]
*217 la_data_out[44]
*218 la_data_out[45]
*219 la_data_out[46]
*220 la_data_out[47]
*221 la_data_out[48]
*222 la_data_out[49]
*223 la_data_out[4]
*224 la_data_out[50]
*225 la_data_out[51]
*226 la_data_out[52]
*227 la_data_out[53]
*228 la_data_out[54]
*229 la_data_out[55]
*230 la_data_out[56]
*231 la_data_out[57]
*232 la_data_out[58]
*233 la_data_out[59]
*234 la_data_out[5]
*235 la_data_out[60]
*236 la_data_out[61]
*237 la_data_out[62]
*238 la_data_out[63]
*239 la_data_out[6]
*240 la_data_out[7]
*241 la_data_out[8]
*242 la_data_out[9]
*243 la_oenb[0]
*244 la_oenb[10]
*245 la_oenb[11]
*246 la_oenb[12]
*247 la_oenb[13]
*248 la_oenb[14]
*249 la_oenb[15]
*250 la_oenb[16]
*251 la_oenb[17]
*252 la_oenb[18]
*253 la_oenb[19]
*254 la_oenb[1]
*255 la_oenb[20]
*256 la_oenb[21]
*257 la_oenb[22]
*258 la_oenb[23]
*259 la_oenb[24]
*260 la_oenb[25]
*261 la_oenb[26]
*262 la_oenb[27]
*263 la_oenb[28]
*264 la_oenb[29]
*265 la_oenb[2]
*266 la_oenb[30]
*267 la_oenb[31]
*268 la_oenb[32]
*269 la_oenb[33]
*270 la_oenb[34]
*271 la_oenb[35]
*272 la_oenb[36]
*273 la_oenb[37]
*274 la_oenb[38]
*275 la_oenb[39]
*276 la_oenb[3]
*277 la_oenb[40]
*278 la_oenb[41]
*279 la_oenb[42]
*280 la_oenb[43]
*281 la_oenb[44]
*282 la_oenb[45]
*283 la_oenb[46]
*284 la_oenb[47]
*285 la_oenb[48]
*286 la_oenb[49]
*287 la_oenb[4]
*288 la_oenb[50]
*289 la_oenb[51]
*290 la_oenb[52]
*291 la_oenb[53]
*292 la_oenb[54]
*293 la_oenb[55]
*294 la_oenb[56]
*295 la_oenb[57]
*296 la_oenb[58]
*297 la_oenb[59]
*298 la_oenb[5]
*299 la_oenb[60]
*300 la_oenb[61]
*301 la_oenb[62]
*302 la_oenb[63]
*303 la_oenb[6]
*304 la_oenb[7]
*305 la_oenb[8]
*306 la_oenb[9]
*307 user_clock2
*308 user_irq[0]
*309 user_irq[1]
*310 user_irq[2]
*313 wb_clk_i
*314 wb_rst_i
*315 wbs_ack_o
*316 wbs_adr_i[0]
*317 wbs_adr_i[10]
*318 wbs_adr_i[11]
*319 wbs_adr_i[12]
*320 wbs_adr_i[13]
*321 wbs_adr_i[14]
*322 wbs_adr_i[15]
*323 wbs_adr_i[16]
*324 wbs_adr_i[17]
*325 wbs_adr_i[18]
*326 wbs_adr_i[19]
*327 wbs_adr_i[1]
*328 wbs_adr_i[20]
*329 wbs_adr_i[21]
*330 wbs_adr_i[22]
*331 wbs_adr_i[23]
*332 wbs_adr_i[24]
*333 wbs_adr_i[25]
*334 wbs_adr_i[26]
*335 wbs_adr_i[27]
*336 wbs_adr_i[28]
*337 wbs_adr_i[29]
*338 wbs_adr_i[2]
*339 wbs_adr_i[30]
*340 wbs_adr_i[31]
*341 wbs_adr_i[3]
*342 wbs_adr_i[4]
*343 wbs_adr_i[5]
*344 wbs_adr_i[6]
*345 wbs_adr_i[7]
*346 wbs_adr_i[8]
*347 wbs_adr_i[9]
*348 wbs_cyc_i
*349 wbs_dat_i[0]
*350 wbs_dat_i[10]
*351 wbs_dat_i[11]
*352 wbs_dat_i[12]
*353 wbs_dat_i[13]
*354 wbs_dat_i[14]
*355 wbs_dat_i[15]
*356 wbs_dat_i[16]
*357 wbs_dat_i[17]
*358 wbs_dat_i[18]
*359 wbs_dat_i[19]
*360 wbs_dat_i[1]
*361 wbs_dat_i[20]
*362 wbs_dat_i[21]
*363 wbs_dat_i[22]
*364 wbs_dat_i[23]
*365 wbs_dat_i[24]
*366 wbs_dat_i[25]
*367 wbs_dat_i[26]
*368 wbs_dat_i[27]
*369 wbs_dat_i[28]
*370 wbs_dat_i[29]
*371 wbs_dat_i[2]
*372 wbs_dat_i[30]
*373 wbs_dat_i[31]
*374 wbs_dat_i[3]
*375 wbs_dat_i[4]
*376 wbs_dat_i[5]
*377 wbs_dat_i[6]
*378 wbs_dat_i[7]
*379 wbs_dat_i[8]
*380 wbs_dat_i[9]
*381 wbs_dat_o[0]
*382 wbs_dat_o[10]
*383 wbs_dat_o[11]
*384 wbs_dat_o[12]
*385 wbs_dat_o[13]
*386 wbs_dat_o[14]
*387 wbs_dat_o[15]
*388 wbs_dat_o[16]
*389 wbs_dat_o[17]
*390 wbs_dat_o[18]
*391 wbs_dat_o[19]
*392 wbs_dat_o[1]
*393 wbs_dat_o[20]
*394 wbs_dat_o[21]
*395 wbs_dat_o[22]
*396 wbs_dat_o[23]
*397 wbs_dat_o[24]
*398 wbs_dat_o[25]
*399 wbs_dat_o[26]
*400 wbs_dat_o[27]
*401 wbs_dat_o[28]
*402 wbs_dat_o[29]
*403 wbs_dat_o[2]
*404 wbs_dat_o[30]
*405 wbs_dat_o[31]
*406 wbs_dat_o[3]
*407 wbs_dat_o[4]
*408 wbs_dat_o[5]
*409 wbs_dat_o[6]
*410 wbs_dat_o[7]
*411 wbs_dat_o[8]
*412 wbs_dat_o[9]
*413 wbs_sel_i[0]
*414 wbs_sel_i[1]
*415 wbs_sel_i[2]
*416 wbs_sel_i[3]
*417 wbs_stb_i
*418 wbs_we_i
*419 wrapped_wb_hyperram

*PORTS
io_in[0] I
io_in[10] I
io_in[11] I
io_in[12] I
io_in[13] I
io_in[14] I
io_in[15] I
io_in[16] I
io_in[17] I
io_in[18] I
io_in[19] I
io_in[1] I
io_in[20] I
io_in[21] I
io_in[22] I
io_in[23] I
io_in[24] I
io_in[25] I
io_in[26] I
io_in[27] I
io_in[28] I
io_in[29] I
io_in[2] I
io_in[30] I
io_in[31] I
io_in[32] I
io_in[33] I
io_in[34] I
io_in[35] I
io_in[36] I
io_in[37] I
io_in[3] I
io_in[4] I
io_in[5] I
io_in[6] I
io_in[7] I
io_in[8] I
io_in[9] I
io_oeb[0] O
io_oeb[10] O
io_oeb[11] O
io_oeb[12] O
io_oeb[13] O
io_oeb[14] O
io_oeb[15] O
io_oeb[16] O
io_oeb[17] O
io_oeb[18] O
io_oeb[19] O
io_oeb[1] O
io_oeb[20] O
io_oeb[21] O
io_oeb[22] O
io_oeb[23] O
io_oeb[24] O
io_oeb[25] O
io_oeb[26] O
io_oeb[27] O
io_oeb[28] O
io_oeb[29] O
io_oeb[2] O
io_oeb[30] O
io_oeb[31] O
io_oeb[32] O
io_oeb[33] O
io_oeb[34] O
io_oeb[35] O
io_oeb[36] O
io_oeb[37] O
io_oeb[3] O
io_oeb[4] O
io_oeb[5] O
io_oeb[6] O
io_oeb[7] O
io_oeb[8] O
io_oeb[9] O
io_out[0] O
io_out[10] O
io_out[11] O
io_out[12] O
io_out[13] O
io_out[14] O
io_out[15] O
io_out[16] O
io_out[17] O
io_out[18] O
io_out[19] O
io_out[1] O
io_out[20] O
io_out[21] O
io_out[22] O
io_out[23] O
io_out[24] O
io_out[25] O
io_out[26] O
io_out[27] O
io_out[28] O
io_out[29] O
io_out[2] O
io_out[30] O
io_out[31] O
io_out[32] O
io_out[33] O
io_out[34] O
io_out[35] O
io_out[36] O
io_out[37] O
io_out[3] O
io_out[4] O
io_out[5] O
io_out[6] O
io_out[7] O
io_out[8] O
io_out[9] O
la_data_in[0] I
la_data_in[10] I
la_data_in[11] I
la_data_in[12] I
la_data_in[13] I
la_data_in[14] I
la_data_in[15] I
la_data_in[16] I
la_data_in[17] I
la_data_in[18] I
la_data_in[19] I
la_data_in[1] I
la_data_in[20] I
la_data_in[21] I
la_data_in[22] I
la_data_in[23] I
la_data_in[24] I
la_data_in[25] I
la_data_in[26] I
la_data_in[27] I
la_data_in[28] I
la_data_in[29] I
la_data_in[2] I
la_data_in[30] I
la_data_in[31] I
la_data_in[32] I
la_data_in[33] I
la_data_in[34] I
la_data_in[35] I
la_data_in[36] I
la_data_in[37] I
la_data_in[38] I
la_data_in[39] I
la_data_in[3] I
la_data_in[40] I
la_data_in[41] I
la_data_in[42] I
la_data_in[43] I
la_data_in[44] I
la_data_in[45] I
la_data_in[46] I
la_data_in[47] I
la_data_in[48] I
la_data_in[49] I
la_data_in[4] I
la_data_in[50] I
la_data_in[51] I
la_data_in[52] I
la_data_in[53] I
la_data_in[54] I
la_data_in[55] I
la_data_in[56] I
la_data_in[57] I
la_data_in[58] I
la_data_in[59] I
la_data_in[5] I
la_data_in[60] I
la_data_in[61] I
la_data_in[62] I
la_data_in[63] I
la_data_in[6] I
la_data_in[7] I
la_data_in[8] I
la_data_in[9] I
la_data_out[0] O
la_data_out[10] O
la_data_out[11] O
la_data_out[12] O
la_data_out[13] O
la_data_out[14] O
la_data_out[15] O
la_data_out[16] O
la_data_out[17] O
la_data_out[18] O
la_data_out[19] O
la_data_out[1] O
la_data_out[20] O
la_data_out[21] O
la_data_out[22] O
la_data_out[23] O
la_data_out[24] O
la_data_out[25] O
la_data_out[26] O
la_data_out[27] O
la_data_out[28] O
la_data_out[29] O
la_data_out[2] O
la_data_out[30] O
la_data_out[31] O
la_data_out[32] O
la_data_out[33] O
la_data_out[34] O
la_data_out[35] O
la_data_out[36] O
la_data_out[37] O
la_data_out[38] O
la_data_out[39] O
la_data_out[3] O
la_data_out[40] O
la_data_out[41] O
la_data_out[42] O
la_data_out[43] O
la_data_out[44] O
la_data_out[45] O
la_data_out[46] O
la_data_out[47] O
la_data_out[48] O
la_data_out[49] O
la_data_out[4] O
la_data_out[50] O
la_data_out[51] O
la_data_out[52] O
la_data_out[53] O
la_data_out[54] O
la_data_out[55] O
la_data_out[56] O
la_data_out[57] O
la_data_out[58] O
la_data_out[59] O
la_data_out[5] O
la_data_out[60] O
la_data_out[61] O
la_data_out[62] O
la_data_out[63] O
la_data_out[6] O
la_data_out[7] O
la_data_out[8] O
la_data_out[9] O
la_oenb[0] I
la_oenb[10] I
la_oenb[11] I
la_oenb[12] I
la_oenb[13] I
la_oenb[14] I
la_oenb[15] I
la_oenb[16] I
la_oenb[17] I
la_oenb[18] I
la_oenb[19] I
la_oenb[1] I
la_oenb[20] I
la_oenb[21] I
la_oenb[22] I
la_oenb[23] I
la_oenb[24] I
la_oenb[25] I
la_oenb[26] I
la_oenb[27] I
la_oenb[28] I
la_oenb[29] I
la_oenb[2] I
la_oenb[30] I
la_oenb[31] I
la_oenb[32] I
la_oenb[33] I
la_oenb[34] I
la_oenb[35] I
la_oenb[36] I
la_oenb[37] I
la_oenb[38] I
la_oenb[39] I
la_oenb[3] I
la_oenb[40] I
la_oenb[41] I
la_oenb[42] I
la_oenb[43] I
la_oenb[44] I
la_oenb[45] I
la_oenb[46] I
la_oenb[47] I
la_oenb[48] I
la_oenb[49] I
la_oenb[4] I
la_oenb[50] I
la_oenb[51] I
la_oenb[52] I
la_oenb[53] I
la_oenb[54] I
la_oenb[55] I
la_oenb[56] I
la_oenb[57] I
la_oenb[58] I
la_oenb[59] I
la_oenb[5] I
la_oenb[60] I
la_oenb[61] I
la_oenb[62] I
la_oenb[63] I
la_oenb[6] I
la_oenb[7] I
la_oenb[8] I
la_oenb[9] I
user_clock2 I
user_irq[0] O
user_irq[1] O
user_irq[2] O
wb_clk_i I
wb_rst_i I
wbs_ack_o O
wbs_adr_i[0] I
wbs_adr_i[10] I
wbs_adr_i[11] I
wbs_adr_i[12] I
wbs_adr_i[13] I
wbs_adr_i[14] I
wbs_adr_i[15] I
wbs_adr_i[16] I
wbs_adr_i[17] I
wbs_adr_i[18] I
wbs_adr_i[19] I
wbs_adr_i[1] I
wbs_adr_i[20] I
wbs_adr_i[21] I
wbs_adr_i[22] I
wbs_adr_i[23] I
wbs_adr_i[24] I
wbs_adr_i[25] I
wbs_adr_i[26] I
wbs_adr_i[27] I
wbs_adr_i[28] I
wbs_adr_i[29] I
wbs_adr_i[2] I
wbs_adr_i[30] I
wbs_adr_i[31] I
wbs_adr_i[3] I
wbs_adr_i[4] I
wbs_adr_i[5] I
wbs_adr_i[6] I
wbs_adr_i[7] I
wbs_adr_i[8] I
wbs_adr_i[9] I
wbs_cyc_i I
wbs_dat_i[0] I
wbs_dat_i[10] I
wbs_dat_i[11] I
wbs_dat_i[12] I
wbs_dat_i[13] I
wbs_dat_i[14] I
wbs_dat_i[15] I
wbs_dat_i[16] I
wbs_dat_i[17] I
wbs_dat_i[18] I
wbs_dat_i[19] I
wbs_dat_i[1] I
wbs_dat_i[20] I
wbs_dat_i[21] I
wbs_dat_i[22] I
wbs_dat_i[23] I
wbs_dat_i[24] I
wbs_dat_i[25] I
wbs_dat_i[26] I
wbs_dat_i[27] I
wbs_dat_i[28] I
wbs_dat_i[29] I
wbs_dat_i[2] I
wbs_dat_i[30] I
wbs_dat_i[31] I
wbs_dat_i[3] I
wbs_dat_i[4] I
wbs_dat_i[5] I
wbs_dat_i[6] I
wbs_dat_i[7] I
wbs_dat_i[8] I
wbs_dat_i[9] I
wbs_dat_o[0] O
wbs_dat_o[10] O
wbs_dat_o[11] O
wbs_dat_o[12] O
wbs_dat_o[13] O
wbs_dat_o[14] O
wbs_dat_o[15] O
wbs_dat_o[16] O
wbs_dat_o[17] O
wbs_dat_o[18] O
wbs_dat_o[19] O
wbs_dat_o[1] O
wbs_dat_o[20] O
wbs_dat_o[21] O
wbs_dat_o[22] O
wbs_dat_o[23] O
wbs_dat_o[24] O
wbs_dat_o[25] O
wbs_dat_o[26] O
wbs_dat_o[27] O
wbs_dat_o[28] O
wbs_dat_o[29] O
wbs_dat_o[2] O
wbs_dat_o[30] O
wbs_dat_o[31] O
wbs_dat_o[3] O
wbs_dat_o[4] O
wbs_dat_o[5] O
wbs_dat_o[6] O
wbs_dat_o[7] O
wbs_dat_o[8] O
wbs_dat_o[9] O
wbs_sel_i[0] I
wbs_sel_i[1] I
wbs_sel_i[2] I
wbs_sel_i[3] I
wbs_stb_i I
wbs_we_i I

*D_NET *1 0.637648
*CONN
*P io_in[0] I
*I *419:io_in[0] I *D wrapped_wb_hyperram
*CAP
1 io_in[0] 0.00051408
2 *419:io_in[0] 0.000255664
3 *1:11 0.0271111
4 *1:10 0.0268555
5 *1:8 0.0446538
6 *1:7 0.0451679
7 *419:io_in[0] *219:10 0
8 *1:8 *7:11 0.0192191
9 *1:8 *50:11 0.000453217
10 *1:8 *77:13 0.231154
11 *1:11 *419:la_data_in[10] 0.0004049
12 *1:11 *73:11 0.0194866
13 *1:11 *97:14 0.0242313
14 *1:11 *108:11 0.197545
15 *1:11 *126:14 0.000595747
*RES
1 io_in[0] *1:7 8.685 
2 *1:7 *1:8 661.05 
3 *1:8 *1:10 4.5 
4 *1:10 *1:11 499.77 
5 *1:11 *419:io_in[0] 15.12 
*END

*D_NET *2 0.213352
*CONN
*P io_in[10] I
*I *419:io_in[10] I *D wrapped_wb_hyperram
*CAP
1 io_in[10] 0.00488578
2 *419:io_in[10] 0.00161437
3 *2:15 0.00963567
4 *2:14 0.0129477
5 *2:9 0.0502708
6 *2:7 0.0502302
7 *419:io_in[10] *419:wbs_adr_i[24] 0.000196496
8 *419:io_in[10] *47:7 1.53035e-05
9 *419:io_in[10] *47:8 0.000181192
10 *2:9 *263:16 0.0263501
11 *2:14 *303:19 0
12 *2:15 *34:15 0
13 *2:15 *63:11 0.0146353
14 *2:15 *104:11 0.00448592
15 *2:15 *158:14 0.0115721
16 *2:15 *208:11 0.0263313
*RES
1 io_in[10] *2:7 37.305 
2 *2:7 *2:9 382.14 
3 *2:9 *2:14 42.57 
4 *2:14 *2:15 143.73 
5 *2:15 *419:io_in[10] 23.94 
*END

*D_NET *3 0.225261
*CONN
*P io_in[11] I
*I *419:io_in[11] I *D wrapped_wb_hyperram
*CAP
1 io_in[11] 0.000363112
2 *419:io_in[11] 0.00102993
3 *3:16 0.00554781
4 *3:15 0.00451788
5 *3:13 0.0907975
6 *3:11 0.0911607
7 *419:io_in[11] *52:7 1.66777e-05
8 *419:io_in[11] *52:8 0.000248374
9 *3:13 *51:14 0
10 *3:16 *8:19 0.0230894
11 *3:16 *89:17 0.00848909
*RES
1 io_in[11] *3:11 3.195 
2 *3:11 *3:13 587.61 
3 *3:13 *3:15 4.5 
4 *3:15 *3:16 69.75 
5 *3:16 *419:io_in[11] 21.96 
*END

*D_NET *4 0.151548
*CONN
*P io_in[12] I
*I *419:io_in[12] I *D wrapped_wb_hyperram
*CAP
1 io_in[12] 0.000167227
2 *419:io_in[12] 0.000450907
3 *4:16 0.0146126
4 *4:15 0.0141617
5 *4:13 0.0559087
6 *4:11 0.0560759
7 *419:io_in[12] *419:io_in[28] 0
8 *419:io_in[12] *419:la_oenb[26] 0.0034831
9 *419:io_in[12] *236:5 0.00554324
10 *419:io_in[12] *266:12 0.00094106
11 *4:16 *18:16 0
12 *4:16 *119:15 0.00020345
*RES
1 io_in[12] *4:11 2.115 
2 *4:11 *4:13 437.67 
3 *4:13 *4:15 4.5 
4 *4:15 *4:16 103.77 
5 *4:16 *419:io_in[12] 29.34 
*END

*D_NET *5 0.263006
*CONN
*P io_in[13] I
*I *419:io_in[13] I *D wrapped_wb_hyperram
*CAP
1 io_in[13] 0.0755075
2 *419:io_in[13] 0.00175955
3 *5:8 0.0286249
4 *5:7 0.0268654
5 *5:5 0.0755075
6 *419:io_in[13] *419:la_data_in[45] 0.000108891
7 *5:8 *32:8 0.0138437
8 *5:8 *82:11 0.0130627
9 *5:8 *118:19 0.00589782
10 *5:8 *278:19 0.0218283
*RES
1 io_in[13] *5:5 590.625 
2 *5:5 *5:7 4.5 
3 *5:7 *5:8 287.91 
4 *5:8 *419:io_in[13] 25.02 
*END

*D_NET *6 0.186472
*CONN
*P io_in[14] I
*I *419:io_in[14] I *D wrapped_wb_hyperram
*CAP
1 io_in[14] 0.000264341
2 *419:io_in[14] 8.7427e-05
3 *6:16 0.0307351
4 *6:15 0.0306477
5 *6:13 0.0620278
6 *6:11 0.0622921
7 *419:io_in[14] *419:la_data_in[22] 0
8 *419:io_in[14] *60:10 1.53035e-05
9 *6:16 *419:la_data_in[22] 0
10 *6:16 *60:10 0.00040188
*RES
1 io_in[14] *6:11 2.655 
2 *6:11 *6:13 485.73 
3 *6:13 *6:15 4.5 
4 *6:15 *6:16 230.13 
5 *6:16 *419:io_in[14] 9.63 
*END

*D_NET *7 0.30567
*CONN
*P io_in[15] I
*I *419:io_in[15] I *D wrapped_wb_hyperram
*CAP
1 io_in[15] 0.0027756
2 *419:io_in[15] 0.000393866
3 *7:14 0.0696948
4 *7:13 0.0693009
5 *7:11 0.0258653
6 *7:10 0.0286409
7 *419:io_in[15] *419:la_oenb[4] 1.59416e-05
8 *419:io_in[15] *419:la_oenb[60] 3.00199e-05
9 *7:11 *40:13 0.0016549
10 *7:11 *50:11 0.0116659
11 *7:11 *79:19 0.0278089
12 *7:11 *80:14 0.038015
13 *7:14 *419:la_oenb[4] 0.0105884
14 *1:8 *7:11 0.0192191
*RES
1 io_in[15] *7:10 31.275 
2 *7:10 *7:11 324.81 
3 *7:11 *7:13 4.5 
4 *7:13 *7:14 446.85 
5 *7:14 *419:io_in[15] 11.7 
*END

*D_NET *8 0.395634
*CONN
*P io_in[16] I
*I *419:io_in[16] I *D wrapped_wb_hyperram
*CAP
1 io_in[16] 0.000247817
2 *419:io_in[16] 0.000911363
3 *8:19 0.00845763
4 *8:18 0.00754626
5 *8:16 0.029729
6 *8:15 0.029729
7 *8:13 0.0333918
8 *8:11 0.0336396
9 *419:io_in[16] *99:10 0.000273838
10 *419:io_in[16] *393:7 1.66777e-05
11 *419:io_in[16] *393:8 0.00025456
12 *8:16 *48:14 0.0664359
13 *8:16 *80:11 0.149273
14 *8:19 *12:16 0.000940185
15 *8:19 *235:11 0.0116986
16 *3:16 *8:19 0.0230894
*RES
1 io_in[16] *8:11 2.655 
2 *8:11 *8:13 256.59 
3 *8:13 *8:15 4.5 
4 *8:15 *8:16 462.15 
5 *8:16 *8:18 4.5 
6 *8:18 *8:19 98.19 
7 *8:19 *419:io_in[16] 22.14 
*END

*D_NET *9 0.171701
*CONN
*P io_in[17] I
*I *419:io_in[17] I *D wrapped_wb_hyperram
*CAP
1 io_in[17] 0.00327237
2 *419:io_in[17] 7.33198e-05
3 *9:14 0.0234297
4 *9:13 0.0233564
5 *9:11 0.047623
6 *9:10 0.047623
7 *9:8 0.00327237
8 *419:io_in[17] *59:10 3.00199e-05
9 *419:io_in[17] *239:14 3.00199e-05
10 *9:8 *83:14 0.0138018
11 *9:11 io_out[17] 2.42076e-05
12 *9:14 *59:10 0.000137777
13 *9:14 *133:18 0
14 *9:14 *211:16 0
15 *9:14 *239:14 0.00902696
*RES
1 io_in[17] *9:8 46.935 
2 *9:8 *9:10 4.5 
3 *9:10 *9:11 360.81 
4 *9:11 *9:13 4.5 
5 *9:13 *9:14 186.21 
6 *9:14 *419:io_in[17] 9.81 
*END

*D_NET *10 0.218269
*CONN
*P io_in[18] I
*I *419:io_in[18] I *D wrapped_wb_hyperram
*CAP
1 io_in[18] 0.00105188
2 *419:io_in[18] 0.000295951
3 *10:11 0.035916
4 *10:10 0.0356201
5 *10:8 0.01481
6 *10:7 0.0158619
7 *419:io_in[18] *317:18 0.00113251
8 *10:8 io_out[18] 0.0110316
9 *10:8 io_out[19] 0.0115335
10 *10:8 *11:10 0.00119677
11 *10:8 *46:17 0.0823245
12 *10:11 *419:la_data_in[49] 7.3723e-05
13 *10:11 *419:la_data_in[61] 0.0074201
14 *10:11 *89:11 0
15 *10:11 *306:15 0
*RES
1 io_in[18] *10:7 12.645 
2 *10:7 *10:8 245.43 
3 *10:8 *10:10 4.5 
4 *10:10 *10:11 278.37 
5 *10:11 *419:io_in[18] 7.695 
*END

*D_NET *11 0.0990246
*CONN
*P io_in[19] I
*I *419:io_in[19] I *D wrapped_wb_hyperram
*CAP
1 io_in[19] 0.00177846
2 *419:io_in[19] 0.000808152
3 *11:11 0.0460238
4 *11:10 0.0469941
5 *419:io_in[19] *419:io_in[28] 0
6 *419:io_in[19] *419:la_oenb[30] 8.88462e-05
7 *419:io_in[19] *73:9 0.000102033
8 *419:io_in[19] *236:5 6.41952e-05
9 *11:10 io_out[19] 0.00192412
10 *11:11 *419:io_in[28] 4.41264e-05
11 *10:8 *11:10 0.00119677
*RES
1 io_in[19] *11:10 28.035 
2 *11:10 *11:11 274.68 
3 *11:11 *419:io_in[19] 13.95 
*END

*D_NET *12 0.333406
*CONN
*P io_in[1] I
*I *419:io_in[1] I *D wrapped_wb_hyperram
*CAP
1 io_in[1] 0.000370905
2 *419:io_in[1] 0.00112198
3 *12:16 0.0556448
4 *12:15 0.0545229
5 *12:13 0.0781564
6 *12:11 0.0785273
7 *419:io_in[1] *197:10 0.000114632
8 *419:io_in[1] *227:10 0.000285572
9 *12:16 *82:11 0
10 *12:16 *118:19 0
11 *12:16 *124:11 0.0353166
12 *12:16 *153:19 0.0187378
13 *12:16 *165:19 0.00277339
14 *12:16 *235:11 0.00689368
15 *8:19 *12:16 0.000940185
*RES
1 io_in[1] *12:11 3.195 
2 *12:11 *12:13 588.51 
3 *12:13 *12:15 4.5 
4 *12:15 *12:16 571.95 
5 *12:16 *419:io_in[1] 22.86 
*END

*D_NET *13 0.164297
*CONN
*P io_in[20] I
*I *419:io_in[20] I *D wrapped_wb_hyperram
*CAP
1 io_in[20] 0.0330815
2 *419:io_in[20] 0.00111285
3 *13:11 0.0138325
4 *13:10 0.0127196
5 *13:8 0.0140331
6 *13:7 0.0140331
7 *13:5 0.0330815
8 *419:io_in[20] *419:la_data_in[17] 0
9 *419:io_in[20] *40:9 3.00199e-05
10 *419:io_in[20] *72:9 6.60385e-05
11 *419:io_in[20] *72:12 0.000630332
12 *13:11 *419:la_oenb[26] 0
13 *13:11 *26:16 0.0401085
14 *13:11 *187:14 0.00156792
*RES
1 io_in[20] *13:5 254.025 
2 *13:5 *13:7 4.5 
3 *13:7 *13:8 108.09 
4 *13:8 *13:10 4.5 
5 *13:10 *13:11 140.67 
6 *13:11 *419:io_in[20] 23.76 
*END

*D_NET *14 0.115037
*CONN
*P io_in[21] I
*I *419:io_in[21] I *D wrapped_wb_hyperram
*CAP
1 io_in[21] 0.00148498
2 *419:io_in[21] 4.08181e-05
3 *14:14 0.00944215
4 *14:13 0.00940133
5 *14:11 0.0441897
6 *14:10 0.0456747
7 *419:io_in[21] *419:la_oenb[41] 1.66777e-05
8 *419:io_in[21] *93:10 1.66777e-05
9 *14:11 *107:11 0.00341355
10 *14:14 *419:la_oenb[41] 0.00034584
11 *14:14 *93:10 0.00101058
*RES
1 io_in[21] *14:10 20.475 
2 *14:10 *14:11 339.03 
3 *14:11 *14:13 4.5 
4 *14:13 *14:14 73.89 
5 *14:14 *419:io_in[21] 9.45 
*END

*D_NET *15 0.130881
*CONN
*P io_in[22] I
*I *419:io_in[22] I *D wrapped_wb_hyperram
*CAP
1 io_in[22] 0.00485065
2 *419:io_in[22] 8.02827e-05
3 *15:15 0.0140563
4 *15:14 0.0139761
5 *15:12 0.027179
6 *15:11 0.027179
7 *15:9 0.0191318
8 *15:7 0.0239824
9 *419:io_in[22] *419:la_oenb[22] 1.53035e-05
10 *419:io_in[22] *104:10 1.53035e-05
11 *15:15 *419:la_oenb[22] 0.000229723
12 *15:15 *104:10 0.00018501
*RES
1 io_in[22] *15:7 37.305 
2 *15:7 *15:9 147.24 
3 *15:9 *15:11 4.5 
4 *15:11 *15:12 211.41 
5 *15:12 *15:14 4.5 
6 *15:14 *15:15 101.79 
7 *15:15 *419:io_in[22] 9.63 
*END

*D_NET *16 0.155767
*CONN
*P io_in[23] I
*I *419:io_in[23] I *D wrapped_wb_hyperram
*CAP
1 io_in[23] 0.000345489
2 *419:io_in[23] 0.00180385
3 *16:19 0.0168075
4 *16:18 0.0150036
5 *16:16 0.0355624
6 *16:15 0.0355624
7 *16:13 0.0242319
8 *16:11 0.0245774
9 *419:io_in[23] *419:la_oenb[17] 0.000479178
10 *16:19 *21:18 0.00139346
11 *16:19 *201:24 0
*RES
1 io_in[23] *16:11 3.195 
2 *16:11 *16:13 186.57 
3 *16:13 *16:15 4.5 
4 *16:15 *16:16 276.75 
5 *16:16 *16:18 4.5 
6 *16:18 *16:19 113.13 
7 *16:19 *419:io_in[23] 28.62 
*END

*D_NET *17 0.284774
*CONN
*P io_in[24] I
*I *419:io_in[24] I *D wrapped_wb_hyperram
*CAP
1 io_in[24] 0.000201168
2 *419:io_in[24] 0.000590634
3 *17:19 0.0183149
4 *17:18 0.0177242
5 *17:16 0.0532012
6 *17:15 0.0532012
7 *17:13 0.044494
8 *17:11 0.0446951
9 *419:io_in[24] *89:7 8.00352e-05
10 *419:io_in[24] *233:13 0
11 *17:19 *38:11 0
12 *17:19 *75:8 0.000205612
13 *17:19 *84:14 0
14 *17:19 *89:8 0.042655
15 *17:19 *94:8 0
16 *17:19 *353:22 0.00687837
17 *17:19 *383:8 0.00209276
18 *17:19 *398:8 0.000439386
*RES
1 io_in[24] *17:11 1.935 
2 *17:11 *17:13 281.61 
3 *17:13 *17:15 4.5 
4 *17:15 *17:16 402.57 
5 *17:16 *17:18 4.5 
6 *17:18 *17:19 204.75 
7 *17:19 *419:io_in[24] 8.325 
*END

*D_NET *18 0.278756
*CONN
*P io_in[25] I
*I *419:io_in[25] I *D wrapped_wb_hyperram
*CAP
1 io_in[25] 0.000125876
2 *419:io_in[25] 0.00133967
3 *18:16 0.0358883
4 *18:15 0.0345486
5 *18:13 0.0822935
6 *18:11 0.0824194
7 *419:io_in[25] *97:10 0.000395606
8 *419:io_in[25] *226:9 0.000110787
9 *419:io_in[25] *226:10 0.00171577
10 *18:16 *116:11 0.0399183
11 *4:16 *18:16 0
*RES
1 io_in[25] *18:11 1.395 
2 *18:11 *18:13 520.65 
3 *18:13 *18:15 4.5 
4 *18:15 *18:16 305.73 
5 *18:16 *419:io_in[25] 29.16 
*END

*D_NET *19 0.26995
*CONN
*P io_in[26] I
*I *419:io_in[26] I *D wrapped_wb_hyperram
*CAP
1 io_in[26] 0.00177706
2 *419:io_in[26] 0.00154104
3 *19:15 0.0205282
4 *19:14 0.0189872
5 *19:12 0.0362342
6 *19:11 0.0362342
7 *19:9 0.0264179
8 *19:7 0.0281949
9 *419:io_in[26] *112:7 0
10 *419:io_in[26] *326:19 0
11 *19:15 *419:la_oenb[1] 0.00349143
12 *19:15 *24:13 0.0535075
13 *19:15 *87:8 0.0322093
14 *19:15 *165:16 0
15 *19:15 *267:16 0.000532675
16 *19:15 *271:14 0.000148504
17 *19:15 *334:14 0.0076594
18 *19:15 *345:16 0
19 *19:15 *375:14 0.00248655
*RES
1 io_in[26] *19:7 13.185 
2 *19:7 *19:9 206.64 
3 *19:9 *19:11 4.5 
4 *19:11 *19:12 272.97 
5 *19:12 *19:14 4.5 
6 *19:14 *19:15 281.97 
7 *19:15 *419:io_in[26] 13.725 
*END

*D_NET *20 0.150452
*CONN
*P io_in[27] I
*I *419:io_in[27] I *D wrapped_wb_hyperram
*CAP
1 io_in[27] 0.00035683
2 *419:io_in[27] 5.26633e-05
3 *20:19 0.0429992
4 *20:18 0.0429465
5 *20:16 0.024755
6 *20:15 0.024755
7 *20:13 0.00703515
8 *20:11 0.00739198
9 *419:io_in[27] *419:la_data_in[19] 1.66777e-05
10 *20:16 *414:13 0
11 *20:19 *419:la_data_in[19] 0.000142901
*RES
1 io_in[27] *20:11 3.015 
2 *20:11 *20:13 54.81 
3 *20:13 *20:15 4.5 
4 *20:15 *20:16 188.55 
5 *20:16 *20:18 4.5 
6 *20:18 *20:19 322.47 
7 *20:19 *419:io_in[27] 9.45 
*END

*D_NET *21 0.20407
*CONN
*P io_in[28] I
*I *419:io_in[28] I *D wrapped_wb_hyperram
*CAP
1 io_in[28] 0.000319313
2 *419:io_in[28] 0.00149219
3 *21:19 0.0028339
4 *21:18 0.00241562
5 *21:13 0.0451741
6 *21:11 0.0444195
7 *419:io_in[28] *49:25 0
8 *21:13 *201:23 0
9 *21:13 *317:12 0.0070783
10 *21:13 *414:16 0
11 *21:19 *22:19 0.003311
12 *21:19 *127:14 0.0178247
13 *21:19 *199:11 0.0481923
14 *21:19 *335:14 0.0226388
15 *21:19 *379:16 0.00693278
16 *419:io_in[12] *419:io_in[28] 0
17 *419:io_in[19] *419:io_in[28] 0
18 *11:11 *419:io_in[28] 4.41264e-05
19 *16:19 *21:18 0.00139346
*RES
1 io_in[28] *21:11 2.475 
2 *21:11 *21:13 362.97 
3 *21:13 *21:18 18.27 
4 *21:18 *21:19 140.67 
5 *21:19 *419:io_in[28] 30.24 
*END

*D_NET *22 0.185586
*CONN
*P io_in[29] I
*I *419:io_in[29] I *D wrapped_wb_hyperram
*CAP
1 io_in[29] 0.000225569
2 *419:io_in[29] 0.00108902
3 *22:19 0.0036101
4 *22:18 0.00252108
5 *22:16 0.0103596
6 *22:15 0.0103596
7 *22:13 0.0406252
8 *22:11 0.0408508
9 *419:io_in[29] *183:10 0.000230723
10 *419:io_in[29] *399:9 1.53035e-05
11 *22:13 *67:8 0
12 *22:13 *393:8 0
13 *22:16 *337:13 0
14 *22:19 *27:11 0.0316281
15 *22:19 *105:11 0.00459247
16 *22:19 *156:16 0.00552233
17 *22:19 *199:11 0.0243132
18 *22:19 *335:14 0.00633168
19 *21:19 *22:19 0.003311
*RES
1 io_in[29] *22:11 1.935 
2 *22:11 *22:13 311.31 
3 *22:13 *22:15 4.5 
4 *22:15 *22:16 76.41 
5 *22:16 *22:18 4.5 
6 *22:18 *22:19 131.85 
7 *22:19 *419:io_in[29] 20.88 
*END

*D_NET *23 0.449367
*CONN
*P io_in[2] I
*I *419:io_in[2] I *D wrapped_wb_hyperram
*CAP
1 io_in[2] 0.00107858
2 *419:io_in[2] 0.00160417
3 *23:16 0.00385578
4 *23:11 0.0601892
5 *23:10 0.0579376
6 *23:8 0.0433268
7 *23:7 0.0444054
8 *419:io_in[2] *419:la_data_in[18] 1.66777e-05
9 *419:io_in[2] *419:wbs_adr_i[2] 6.56956e-06
10 *419:io_in[2] *338:22 0.00642713
11 *23:8 io_oeb[4] 0.00022099
12 *23:8 *111:17 0.0431935
13 *23:11 *113:14 0
14 *23:11 *227:14 0.175844
15 *23:11 *248:16 0
16 *23:11 *407:10 1.17804e-05
17 *23:16 *71:11 2.36004e-05
18 *23:16 *227:11 0.011225
*RES
1 io_in[2] *23:7 12.825 
2 *23:7 *23:8 388.71 
3 *23:8 *23:10 4.5 
4 *23:10 *23:11 587.97 
5 *23:11 *23:16 38.43 
6 *23:16 *419:io_in[2] 27.18 
*END

*D_NET *24 0.146503
*CONN
*P io_in[30] I
*I *419:io_in[30] I *D wrapped_wb_hyperram
*CAP
1 io_in[30] 0.00013888
2 *419:io_in[30] 0.00308779
3 *24:18 0.0068377
4 *24:13 0.0419261
5 *24:11 0.038315
6 *419:io_in[30] *381:7 1.66777e-05
7 *419:io_in[30] *381:8 0.000652827
8 *24:13 *345:16 0
9 *24:13 *375:14 0
10 *24:18 *273:11 0
11 *24:18 *288:15 0.00202062
12 *19:15 *24:13 0.0535075
*RES
1 io_in[30] *24:11 1.395 
2 *24:11 *24:13 354.51 
3 *24:13 *24:18 42.57 
4 *24:18 *419:io_in[30] 32.22 
*END

*D_NET *25 0.282084
*CONN
*P io_in[31] I
*I *419:io_in[31] I *D wrapped_wb_hyperram
*CAP
1 io_in[31] 0.00400211
2 *419:io_in[31] 0.00100679
3 *25:11 0.0239502
4 *25:10 0.0229434
5 *25:8 0.0274903
6 *25:7 0.0314924
7 *419:io_in[31] *105:10 8.71792e-05
8 *419:io_in[31] *187:10 0.000270611
9 *25:7 *417:18 0
10 *25:11 *419:la_data_in[0] 0.000492072
11 *25:11 *27:11 0.00158229
12 *25:11 *46:13 0.000822924
13 *25:11 *105:11 0.157059
14 *25:11 *387:11 0.0108842
15 *25:11 *411:11 0
*RES
1 io_in[31] *25:7 34.965 
2 *25:7 *25:8 210.51 
3 *25:8 *25:10 4.5 
4 *25:10 *25:11 408.33 
5 *25:11 *419:io_in[31] 20.16 
*END

*D_NET *26 0.297544
*CONN
*P io_in[32] I
*I *419:io_in[32] I *D wrapped_wb_hyperram
*CAP
1 io_in[32] 0.000415114
2 *419:io_in[32] 0.000886114
3 *26:16 0.013158
4 *26:15 0.0122719
5 *26:13 0.0688761
6 *26:11 0.0692912
7 *419:io_in[32] *419:la_data_in[14] 0.00124721
8 *419:io_in[32] *419:wbs_adr_i[29] 0.00016308
9 *26:16 *419:la_oenb[15] 0.00624274
10 *26:16 *31:16 0.0160018
11 *26:16 *187:14 0.0688825
12 *13:11 *26:16 0.0401085
*RES
1 io_in[32] *26:11 3.015 
2 *26:11 *26:13 515.43 
3 *26:13 *26:15 4.5 
4 *26:15 *26:16 269.55 
5 *26:16 *419:io_in[32] 23.94 
*END

*D_NET *27 0.24176
*CONN
*P io_in[33] I
*I *419:io_in[33] I *D wrapped_wb_hyperram
*CAP
1 io_in[33] 0.00119342
2 *419:io_in[33] 0.00120571
3 *27:11 0.0192395
4 *27:10 0.0180338
5 *27:8 0.0451236
6 *27:7 0.046317
7 *419:io_in[33] *419:wbs_sel_i[1] 8.27682e-05
8 *27:11 *105:11 0.0635779
9 *27:11 *335:14 0.00199202
10 *27:11 *379:16 0.0117838
11 *22:19 *27:11 0.0316281
12 *25:11 *27:11 0.00158229
*RES
1 io_in[33] *27:7 13.365 
2 *27:7 *27:8 346.77 
3 *27:8 *27:10 4.5 
4 *27:10 *27:11 382.41 
5 *27:11 *419:io_in[33] 20.7 
*END

*D_NET *28 0.373997
*CONN
*P io_in[34] I
*I *419:io_in[34] I *D wrapped_wb_hyperram
*CAP
1 io_in[34] 0.000225569
2 *419:io_in[34] 0.00431289
3 *28:16 0.0232642
4 *28:15 0.0189513
5 *28:13 0.0717493
6 *28:11 0.0719748
7 *419:io_in[34] *409:16 0.000895639